.subckt or in1 in2 out vdd gnd

    X1 in1 in2 out1 vdd gnd nor

    X2 out1 out vdd gnd inverter

.ends or